LAMMPS (2 Aug 2023 - Update 1)
# LAMMPS input script by Simon Gravelle

include parameters.lammps
# LAMMPS parameters
variable mass equal 1.0 # gram / mole
variable sigma equal 3 # angstrom
variable epsilon equal 0.1 # kilocalorie / mole
variable dt equal 1.1594857764433242 # femtosecond
variable n_step equal 20000
variable n_part equal 1638
variable L equal 37.47998932384172 # angstrom
variable cut_off equal 9.0 # angstrom
variable T equal 30.193172004468817 # kelvin

units real
dimension 3
atom_style full
pair_style lj/cut 9
boundary p p p

region simulation_box block 0 37.4799893238417 0 37.4799893238417 0 37.4799893238417
create_box 1 simulation_box
Created orthogonal box = (0 0 0) to (37.479989 37.479989 37.479989)
create_atoms 1 random 1638 921342 simulation_box
Created 1638 atoms

mass 1 1
pair_coeff 1 1 0.1 3

thermo 10

minimize 1.0e-4 1.0e-6 1000 10000
Generated 0 of 0 mixed pair_coeff terms from geometric mixing rule
Step          Temp          E_pair         E_mol          TotEng         Press
0   0              1.6759577e+18  0              1.6759577e+18  8.7306943e+18
Loop time of 0.69523 on 4 procs for 242 steps with 1638 atoms

Minimization stats:
  Stopping criterion = energy tolerance
  Energy initial, next-to-last, final =
  Force two-norm initial, final = 3.3781834e+20 0.62832616
  Force max component initial, final = 1.5795705e+20 0.12527286
  Final line search alpha, max atom move = 0.90322418 0.11314948
  Iterations, force evaluations = 242 329

thermo 1000

velocity all create 30.1931720044688 4928459 rot yes mom yes dist gaussian
fix mynve all nve
fix mylgv all langevin 30.1931720044688 30.1931720044688 10 1530917

timestep 1.15948577644332
run 10000
Generated 0 of 0 mixed pair_coeff terms from geometric mixing rule
Step          Temp          E_pair         E_mol          TotEng         Press
242   30.193172     -1126.0051      0             -978.67495     -601.94487
Averages over the last 6 of 12 rows, steps 6000 to 10242:
Temp E_pair E_mol TotEng Press
30.8444 -979.367 0 -828.86 35.6356
Loop time of 12.1695 on 4 procs for 10000 steps with 1638 atoms

reset_timestep 0
unfix mylgv

dump mydmp all xtc 20 dump.xtc

run 20000
Generated 0 of 0 mixed pair_coeff terms from geometric mixing rule
Step          Temp          E_pair         E_mol          TotEng         Press
0   31.61474      -974.81924      0             -820.55239      37.592991
Averages over the last 11 of 21 rows, steps 10000 to 20000:
Temp E_pair E_mol TotEng Press
30.7945 -970.465 0 -820.201 -51.4957
Loop time of 24.1064 on 4 procs for 20000 steps with 1638 atoms

reset_atoms image all
Generated 0 of 0 mixed pair_coeff terms from geometric mixing rule
  reset_atoms image CPU = 0.004 seconds
write_dump all atom dump.lammpstrj
write_data system.data nocoeff nofix nolabelmap
System init for write_data ...
Generated 0 of 0 mixed pair_coeff terms from geometric mixing rule
